* This is a comment
.model jpsw sw ron=1 roff=1meg vt=1 vh=0
.model head sw ron=1meg roff=1e-6 vt=1 vh=0
