Version 4
SHEET 1 880 680
WIRE 96 80 -96 80
WIRE -96 128 -96 80
WIRE 96 176 96 160
WIRE 224 176 224 128
WIRE 224 176 96 176
WIRE 96 208 96 176
WIRE -96 224 -96 208
WIRE 192 256 160 256
WIRE 320 256 272 256
WIRE 320 304 320 256
WIRE 96 352 96 304
WIRE 320 400 320 384
FLAG 96 352 0
FLAG 320 400 0
FLAG -96 224 0
FLAG 224 128 Vout
SYMBOL npn 160 208 M0
SYMATTR InstName Q1
SYMATTR Value 2N3904
SYMBOL res 80 64 R0
SYMATTR InstName R1
SYMATTR Value 47k
SYMBOL voltage 320 288 R0
WINDOW 123 0 0 Left 0
WINDOW 39 0 0 Left 0
SYMATTR InstName V1
SYMATTR Value 0.5
SYMBOL res 176 272 R270
WINDOW 0 32 56 VTop 0
WINDOW 3 0 56 VBottom 0
SYMATTR InstName R2
SYMATTR Value 1
SYMBOL voltage -96 112 R0
WINDOW 123 0 0 Left 0
WINDOW 39 0 0 Left 0
SYMATTR InstName V2
SYMATTR Value 5
TEXT -112 432 Left 0 !.op
