Version 4
SHEET 1 1280 680
WIRE 240 -176 -400 -176
WIRE 416 -112 96 -112
WIRE 416 -64 416 -112
WIRE -400 -16 -400 -176
WIRE -96 -16 -400 -16
WIRE 96 -16 96 -112
WIRE 96 -16 -16 -16
WIRE 192 -16 96 -16
WIRE 240 -16 240 -176
WIRE 352 -16 304 -16
WIRE 192 80 192 -16
WIRE -400 128 -400 -16
WIRE -288 128 -400 128
WIRE 112 128 -32 128
WIRE 416 128 416 32
WIRE 416 128 208 128
WIRE 528 128 416 128
WIRE 672 128 672 96
WIRE 672 128 608 128
WIRE 672 176 672 128
WIRE -400 192 -400 128
WIRE 832 192 720 192
WIRE 832 224 832 192
WIRE 672 288 672 256
WIRE 720 288 720 240
WIRE 720 288 672 288
WIRE -400 320 -400 272
WIRE -160 320 -160 240
WIRE 672 320 672 288
WIRE 832 320 832 304
FLAG -400 320 0
FLAG -160 320 0
FLAG 672 320 0
FLAG 832 320 0
FLAG 672 96 Vsw
SYMBOL voltage -400 176 R0
WINDOW 123 0 0 Left 0
WINDOW 39 0 0 Left 0
SYMATTR InstName V1
SYMATTR Value 10
SYMBOL PowerProducts\\LT1790-5 -160 128 R0
SYMATTR InstName U1
SYMBOL sw 672 272 R180
SYMATTR InstName S1
SYMATTR Value jpsw
SYMBOL res 512 144 R270
WINDOW 0 32 56 VTop 0
WINDOW 3 0 56 VBottom 0
SYMATTR InstName R1
SYMATTR Value 1
SYMBOL voltage 832 208 R0
WINDOW 123 24 132 Left 0
WINDOW 39 0 0 Left 0
SYMATTR InstName V2
SYMATTR Value PULSE(0 2 10m 1n 1n 10m 50m 1)
SYMATTR Value2 AC 1
SYMBOL nmos 112 80 M90
WINDOW 0 69 59 VLeft 0
WINDOW 3 95 131 VLeft 0
SYMATTR InstName M1
SYMATTR Value FDS3580
SYMBOL res -112 0 R270
WINDOW 0 32 56 VTop 0
WINDOW 3 0 56 VBottom 0
SYMATTR InstName R2
SYMATTR Value 10k
SYMBOL npn 352 -64 R0
SYMATTR InstName Q1
SYMATTR Value 2N3904
SYMBOL zener 304 0 M270
WINDOW 0 36 32 VTop 0
WINDOW 3 -4 32 VBottom 0
SYMATTR InstName D1
SYMATTR Value BZX84C6V2L
TEXT 184 392 Left 0 !.include models/jpsmodels.mod
TEXT 184 424 Left 0 !;op
TEXT 184 456 Left 0 !.tran 30m
